Version 4
SHEET 1 2144 680
WIRE -160 -112 -160 -128
WIRE -160 -112 -288 -112
WIRE -288 -96 -288 -112
WIRE -160 -96 -160 -112
WIRE 48 16 16 16
WIRE 432 16 128 16
WIRE -112 64 -176 64
WIRE 16 64 16 16
WIRE 16 64 -32 64
WIRE -176 96 -176 64
WIRE 336 112 336 96
WIRE 16 144 16 64
WIRE 64 144 16 144
WIRE 272 160 128 160
WIRE 64 176 -128 176
WIRE -128 224 -128 176
WIRE 336 240 336 208
WIRE 432 240 432 16
WIRE 432 240 336 240
WIRE 528 240 432 240
WIRE 528 272 528 240
FLAG -176 96 0
FLAG -288 -96 0
FLAG 528 352 0
FLAG -160 -16 v-
FLAG 96 192 v-
FLAG -160 -208 v+
FLAG 96 128 v+
FLAG 336 96 v+
FLAG -128 304 0
FLAG 528 240 vout
SYMBOL npn 272 112 R0
SYMATTR InstName Q1
SYMATTR Value 2N3055
SYMBOL voltage -160 -224 R0
SYMATTR InstName V1
SYMATTR Value 15
SYMBOL voltage -160 -112 R0
SYMATTR InstName V2
SYMATTR Value 15
SYMBOL res 512 256 R0
SYMATTR InstName R1
SYMATTR Value {x}
SYMBOL res 144 0 R90
WINDOW 0 0 56 VBottom 2
WINDOW 3 32 56 VTop 2
SYMATTR InstName R2
SYMATTR Value 1k
SYMBOL res -16 48 R90
WINDOW 0 0 56 VBottom 2
WINDOW 3 32 56 VTop 2
SYMATTR InstName R3
SYMATTR Value 1k
SYMBOL voltage -128 208 R0
SYMATTR InstName V3
SYMATTR Value 2
SYMBOL Opamps\\OP27 96 96 R0
SYMATTR InstName U2
TEXT -308 536 Left 2 !.tran 0 1u 0 0.01u
TEXT -288 456 Left 2 !.step param x list 4 40 400
TEXT 600 -88 Left 2 ;Configurazione base usando come regolatore un transistor
TEXT 608 -64 Left 2 ;Il circuito può essere visto come un amplificatore non invertente (G=rf/ri+1)
TEXT 592 0 Left 2 ;il valore di vout sarò quindi il doppio della tensone che applichiamo attraverso il generaore V3, cche sarà poi sostituito da un DAC
TEXT 600 48 Left 2 ;al variare della corrente assorbita dal carico la tensione non cambia, quindi il circuito stà regolando in maniera opportuna
