Version 4
SHEET 1 3556 1780
WIRE 1328 928 1232 928
WIRE 1536 928 1328 928
WIRE 1232 960 1232 928
WIRE 1328 960 1328 928
WIRE 1536 960 1536 928
WIRE 1760 976 1712 976
WIRE 1824 976 1760 976
WIRE 1952 976 1904 976
WIRE 2048 976 1952 976
WIRE 2160 976 2048 976
WIRE 2416 976 2160 976
WIRE 1760 992 1760 976
WIRE 1952 1008 1952 976
WIRE 2048 1008 2048 976
WIRE 3424 1008 3360 1008
WIRE 1712 1040 1712 976
WIRE 1712 1040 1664 1040
WIRE 1232 1056 1232 1040
WIRE 1328 1056 1328 1024
WIRE 1760 1072 1760 1056
WIRE 3360 1072 3360 1008
WIRE 2048 1088 2048 1072
WIRE 1872 1104 1664 1104
WIRE 1920 1104 1872 1104
WIRE 1952 1104 1952 1088
WIRE 2016 1104 1952 1104
WIRE 1696 1168 1664 1168
WIRE 1808 1168 1776 1168
WIRE 3264 1168 3264 1152
WIRE 3360 1168 3360 1152
WIRE 3360 1168 3264 1168
WIRE 3456 1168 3360 1168
WIRE 1808 1184 1808 1168
WIRE 2416 1184 2416 976
WIRE 2832 1184 2416 1184
WIRE 3056 1184 2928 1184
WIRE 3232 1184 3056 1184
WIRE 3360 1200 3360 1168
WIRE 3232 1232 3232 1184
WIRE 1536 1264 1536 1248
WIRE 1808 1264 1808 1248
WIRE 2016 1264 2016 1104
WIRE 2144 1312 2080 1312
WIRE 2688 1312 2688 1296
WIRE 2752 1312 2688 1312
WIRE 2912 1312 2912 1232
WIRE 2912 1312 2832 1312
WIRE 3232 1328 3232 1312
WIRE 2144 1344 2144 1312
WIRE 2384 1344 2352 1344
WIRE 2496 1344 2448 1344
WIRE 2624 1344 2576 1344
WIRE 3360 1344 3360 1280
WIRE 3424 1344 3360 1344
WIRE 2688 1360 2688 1312
WIRE 1920 1408 1920 1104
WIRE 2016 1408 2016 1360
WIRE 2016 1408 1920 1408
WIRE 2144 1408 2016 1408
WIRE 2912 1424 2912 1312
WIRE 2912 1424 2832 1424
WIRE 2272 1456 2240 1456
WIRE 2352 1456 2352 1344
WIRE 2464 1456 2352 1456
WIRE 2624 1472 2624 1344
WIRE 2624 1472 2528 1472
WIRE 2688 1472 2688 1440
WIRE 2688 1472 2624 1472
WIRE 2768 1472 2688 1472
WIRE 2464 1488 2400 1488
WIRE 2352 1520 2352 1456
WIRE 2176 1632 2176 1600
WIRE 2352 1632 2352 1584
WIRE 2352 1632 2176 1632
WIRE 2400 1632 2400 1488
WIRE 2400 1632 2352 1632
WIRE 2176 1680 2176 1632
FLAG 1808 1264 0
FLAG 1536 1264 0
FLAG 1232 1056 0
FLAG 1328 1056 0
FLAG 1760 1072 0
FLAG 2048 1088 0
FLAG 2160 976 PREREG_OUT
FLAG 1232 928 IN
FLAG 3232 1328 0
FLAG 1872 1184 0
FLAG 3056 1184 OUT
FLAG 3424 1008 v+
FLAG 3424 1344 v-
FLAG 3264 1072 5v
FLAG 3456 1168 OUT
FLAG 2496 1504 v-
FLAG 2496 1440 v+
FLAG 2176 1760 0
FLAG 2176 1520 5v
FLAG 2832 1520 v-
FLAG 2240 1456 vgnd
FLAG 2688 1296 v+
FLAG 2144 1312 OUT
SYMBOL RES 1680 1184 R270
WINDOW 0 32 56 VTop 2
WINDOW 3 0 56 VBottom 2
SYMATTR InstName R1
SYMATTR Value 2.7K
SYMBOL IND 1808 992 R270
WINDOW 0 32 56 VTop 2
WINDOW 3 5 56 VBottom 2
SYMATTR InstName L1
SYMATTR Value 50µ
SYMBOL schottky 1744 1056 M180
WINDOW 0 31 63 Left 2
WINDOW 3 24 0 Left 2
SYMATTR InstName D1
SYMATTR Value MBRS140
SYMBOL POLCAP 1312 960 R0
SYMATTR InstName C1
SYMATTR Value 230µ
SYMATTR SpiceLine Rser=0.05
SYMBOL POLCAP 2032 1008 R0
SYMATTR InstName C2
SYMATTR Value 500µ
SYMATTR SpiceLine Rser=0.07
SYMBOL VOLTAGE 1232 944 R0
SYMATTR InstName V1
SYMATTR Value 25
SYMATTR SpiceLine Rser=0.02
SYMBOL cap 1792 1184 R0
SYMATTR InstName C3
SYMATTR Value .01µ
SYMBOL POWERPRODUCTS\\LT1074 1536 1104 R0
SYMATTR InstName U1
SYMBOL pnp 2080 1264 M0
SYMATTR InstName Q1
SYMATTR Value 2N3906
SYMBOL res 1856 1088 R0
WINDOW 3 -46 39 Left 2
SYMATTR Value 10K
SYMATTR InstName R2
SYMBOL res 1936 992 R0
SYMATTR InstName R3
SYMATTR Value 4K
SYMBOL cap 2128 1344 R0
SYMATTR InstName C4
SYMATTR Value 470p
SYMBOL voltage 3360 1056 R0
SYMATTR InstName V2
SYMATTR Value 12
SYMBOL voltage 3360 1184 R0
SYMATTR InstName V3
SYMATTR Value 12
SYMBOL voltage 3264 1056 R0
SYMATTR InstName V4
SYMATTR Value 5
SYMBOL res 3216 1216 R0
SYMATTR InstName R6
SYMATTR Value 50k
SYMBOL Opamps\\OP27 2496 1408 R0
SYMATTR InstName U2
SYMBOL res 2592 1328 R90
WINDOW 0 0 56 VBottom 2
WINDOW 3 32 56 VTop 2
SYMATTR InstName R4
SYMATTR Value 1.5m
SYMBOL cap 2448 1328 R90
WINDOW 0 0 32 VBottom 2
WINDOW 3 32 32 VTop 2
SYMATTR InstName C6
SYMATTR Value 2200pf
SYMBOL res 2368 1440 R90
WINDOW 0 0 56 VBottom 2
WINDOW 3 32 56 VTop 2
SYMATTR InstName R5
SYMATTR Value 8k
SYMBOL res 2192 1616 R180
WINDOW 0 36 76 Left 2
WINDOW 3 36 40 Left 2
SYMATTR InstName R7
SYMATTR Value 10k
SYMBOL res 2192 1776 R180
WINDOW 0 36 76 Left 2
WINDOW 3 58 62 VLeft 2
SYMATTR InstName R8
SYMATTR Value 25k
SYMBOL pnp 2768 1520 M180
WINDOW 0 4 68 Right 2
WINDOW 3 9 28 Right 2
SYMATTR InstName Q2
SYMATTR Value 2N3906
SYMBOL nmos 2832 1232 R270
SYMATTR InstName M1
SYMATTR Value BSP89
SYMBOL res 2672 1344 R0
SYMATTR InstName R9
SYMATTR Value 5k
SYMBOL res 2848 1296 R90
WINDOW 0 0 56 VBottom 2
WINDOW 3 32 56 VTop 2
SYMATTR InstName R10
SYMATTR Value 1.2k
SYMBOL diode 2336 1520 R0
SYMATTR InstName D2
SYMATTR Value 1N4148
TEXT 2160 1168 Left 2 !.tran 10m uic
