* Z:\home\carlo\Progetti\didactic-octo-psu\simulazioni_spice\switching_tracking\Switching_Follower_pass.asc
R1 N004 N005 2.7K
L1 N001 PREREG_OUT 50µ
D1 0 N001 MBRS140
C1 IN 0 230µ Rser=0.05
C2 PREREG_OUT 0 250µ Rser=0.07
V1 IN 0 30 Rser=0.02
C3 N005 0 .01µ
XU1 IN N001 NC_01 0 N002 N004 NC_02 LT1074
Q1 N003 OUT N002 0 2N3906
R2 N002 0 10K
R3 PREREG_OUT N003 3k
C4 OUT N002 470p
V2 v+ OUT 12
V3 OUT v- 12
V4 5v OUT 5
R6 OUT 0 5
XU2 N010 N007 v+ v- N009 LT1007
R4 N009 N008 1.5m
C6 N008 N007 2200pf
R5 N007 vgnd 8k
R7 N010 5v 10k
R8 0 N010 150k
Q2 v- N009 N006 0 2N3906
M1 PREREG_OUT N006 OUT OUT IRF510
R9 v+ N009 5k
R10 N006 v+ 1.2k
D2 N007 N010 1N4148
.model D D
.lib C:\users\carlo\My Documents\LTspiceXVII\lib\cmp\standard.dio
.model NPN NPN
.model PNP PNP
.lib C:\users\carlo\My Documents\LTspiceXVII\lib\cmp\standard.bjt
.model NMOS NMOS
.model PMOS PMOS
.lib C:\users\carlo\My Documents\LTspiceXVII\lib\cmp\standard.mos
.tran 10m uic
.model IRF440   NMOS(Level=3 Gamma=0 Delta=0 Eta=0 Theta=0 Kappa=0.2 Vmax=0 Xj=0
+                               Tox=100n Uo=600 Phi=.6 Rs=1.819m Kp=20.87u W=.61 L=2u Vto=3.873
+                               Rd=.6724 Rds=2.222MEG Cbd=1.365n Pb=.8 Mj=.5 Fc=.5 Cgso=1.792n
+                               Cgdo=148.7p Rg=.4321 Is=441.3p N=1 Tt=710n)
.lib LT1074.sub
.lib LTC.lib
.backanno
.end
