Version 4
SHEET 1 3336 1784
WIRE 1328 928 1232 928
WIRE 1536 928 1328 928
WIRE 1232 960 1232 928
WIRE 1328 960 1328 928
WIRE 1536 960 1536 928
WIRE 1760 976 1712 976
WIRE 1824 976 1760 976
WIRE 1952 976 1904 976
WIRE 2048 976 1952 976
WIRE 2160 976 2048 976
WIRE 2416 976 2160 976
WIRE 2640 976 2416 976
WIRE 1760 992 1760 976
WIRE 1952 1008 1952 976
WIRE 2048 1008 2048 976
WIRE 1712 1040 1712 976
WIRE 1712 1040 1664 1040
WIRE 1232 1056 1232 1040
WIRE 1328 1056 1328 1024
WIRE 1760 1072 1760 1056
WIRE 2640 1072 2640 976
WIRE 2048 1088 2048 1072
WIRE 1872 1104 1664 1104
WIRE 1920 1104 1872 1104
WIRE 1952 1104 1952 1088
WIRE 2016 1104 1952 1104
WIRE 1696 1168 1664 1168
WIRE 1808 1168 1776 1168
WIRE 1808 1184 1808 1168
WIRE 2416 1184 2416 976
WIRE 2512 1184 2416 1184
WIRE 2832 1184 2768 1184
WIRE 2880 1184 2832 1184
WIRE 2960 1184 2880 1184
WIRE 2832 1216 2832 1184
WIRE 2960 1232 2960 1184
WIRE 1536 1264 1536 1248
WIRE 1808 1264 1808 1248
WIRE 2016 1264 2016 1104
WIRE 2144 1312 2080 1312
WIRE 2640 1312 2640 1296
WIRE 2640 1312 2144 1312
WIRE 2960 1328 2960 1312
WIRE 2144 1344 2144 1312
WIRE 1920 1408 1920 1104
WIRE 2016 1408 2016 1360
WIRE 2016 1408 1920 1408
WIRE 2144 1408 2016 1408
FLAG 1808 1264 0
FLAG 1536 1264 0
FLAG 1232 1056 0
FLAG 1328 1056 0
FLAG 1760 1072 0
FLAG 2048 1088 0
FLAG 2160 976 PREREG_OUT
FLAG 1232 928 IN
FLAG 2960 1328 0
FLAG 1872 1184 0
FLAG 2880 1184 OUT
FLAG 2832 1280 0
FLAG 2640 1392 0
SYMBOL RES 1680 1184 R270
WINDOW 0 32 56 VTop 2
WINDOW 3 0 56 VBottom 2
SYMATTR InstName R1
SYMATTR Value 2.7K
SYMBOL IND 1808 992 R270
WINDOW 0 32 56 VTop 2
WINDOW 3 5 56 VBottom 2
SYMATTR InstName L1
SYMATTR Value 50µ
SYMBOL schottky 1744 1056 M180
WINDOW 0 31 63 Left 2
WINDOW 3 24 0 Left 2
SYMATTR InstName D1
SYMATTR Value MBRS140
SYMBOL POLCAP 1312 960 R0
SYMATTR InstName C1
SYMATTR Value 230µ
SYMATTR SpiceLine Rser=0.05
SYMBOL POLCAP 2032 1008 R0
SYMATTR InstName C2
SYMATTR Value 500µ
SYMATTR SpiceLine Rser=0.07
SYMBOL VOLTAGE 1232 944 R0
SYMATTR InstName V1
SYMATTR Value 25
SYMATTR SpiceLine Rser=0.02
SYMBOL cap 1792 1184 R0
SYMATTR InstName C3
SYMATTR Value .01µ
SYMBOL POWERPRODUCTS\\LT1074 1536 1104 R0
SYMATTR InstName U1
SYMBOL current 2960 1232 R0
WINDOW 123 0 0 Left 2
WINDOW 39 0 0 Left 2
SYMATTR InstName I1
SYMATTR Value SINE(1 1 1k)
SYMBOL pnp 2080 1264 M0
SYMATTR InstName Q1
SYMATTR Value 2N3906
SYMBOL res 1856 1088 R0
WINDOW 3 -46 39 Left 2
SYMATTR Value 10K
SYMATTR InstName R2
SYMBOL res 1936 992 R0
SYMATTR InstName R3
SYMATTR Value 5K
SYMBOL cap 2128 1344 R0
SYMATTR InstName C4
SYMATTR Value 470p
SYMBOL cap 2816 1216 R0
SYMATTR InstName C5
SYMATTR Value 100µ
SYMBOL PowerProducts\\LT3083 2640 1184 R0
SYMATTR InstName U2
SYMBOL VOLTAGE 2640 1296 R0
SYMATTR InstName V2
SYMATTR Value 10
SYMATTR SpiceLine Rser=0.02
TEXT 1272 1136 Left 0 !.tran 0 10m 4m
TEXT 1696 912 Bottom 0 ;LT1074 - Step-Down Switching Regulator\nInput: 10V to 40V       Output: 5V @ 5A
TEXT 1144 1288 Left 0 ;Note:\n  If the simulation model is not found please update with the "Sync Release" command from the "Tools" menu.\n  It remains the customer's responsibility to verify proper and reliable operation in the actual application.\n  Component substitution and printed circuit board layout may significantly affect circuit performance or reliability.\n  Contact your local sales representative for assistance. This circuit is distributed to customers only for use with LTC parts.\n  Copyright © 2011 Linear Technology Inc. All rights reserved.
