Version 4
SHEET 1 2676 1204
WIRE -160 -112 -160 -128
WIRE -160 -112 -288 -112
WIRE -288 -96 -288 -112
WIRE -160 -96 -160 -112
WIRE 48 16 16 16
WIRE 736 16 128 16
WIRE -112 64 -176 64
WIRE 16 64 16 16
WIRE 16 64 -32 64
WIRE -176 96 -176 64
WIRE 368 96 368 64
WIRE 368 96 288 96
WIRE 368 112 368 96
WIRE 288 128 288 96
WIRE 16 144 16 64
WIRE 64 144 16 144
WIRE 192 160 128 160
WIRE 64 176 -128 176
WIRE 192 192 192 160
WIRE -128 224 -128 176
WIRE 368 240 368 192
WIRE 448 240 368 240
WIRE 192 272 192 256
WIRE 288 272 288 208
WIRE 288 272 192 272
WIRE 368 272 368 240
WIRE 448 272 448 240
WIRE 544 272 448 272
WIRE 192 320 192 272
WIRE 288 320 272 320
WIRE 304 320 288 320
WIRE 592 320 592 288
WIRE 624 320 592 320
WIRE 736 320 736 16
WIRE 736 320 704 320
WIRE 768 320 768 304
WIRE 768 320 736 320
WIRE 848 320 768 320
WIRE 768 336 768 320
WIRE 192 352 192 320
WIRE 288 352 288 320
WIRE 368 400 368 368
WIRE 1792 480 1744 480
WIRE 1936 480 1872 480
WIRE 192 560 192 416
WIRE 192 560 16 560
WIRE 1744 560 1744 480
WIRE 1744 560 1728 560
WIRE 1776 560 1744 560
WIRE 1936 576 1936 480
WIRE 1936 576 1840 576
WIRE 336 592 288 592
WIRE 464 592 416 592
WIRE 592 592 592 320
WIRE 656 592 592 592
WIRE 1776 592 1728 592
WIRE 1728 640 1728 592
WIRE 464 688 464 592
WIRE 512 688 464 688
WIRE 736 688 736 320
WIRE 736 688 592 688
WIRE 464 720 464 688
WIRE 464 720 416 720
WIRE 240 736 240 720
WIRE 240 736 160 736
WIRE 288 736 288 592
WIRE 288 736 240 736
WIRE 352 736 288 736
WIRE 16 752 16 560
WIRE 96 752 16 752
WIRE 464 752 416 752
WIRE 208 768 160 768
WIRE 1936 784 1936 576
WIRE 464 800 464 752
WIRE 464 800 448 800
WIRE 512 800 464 800
WIRE 656 800 656 592
WIRE 656 800 592 800
WIRE 448 832 448 800
WIRE 208 848 208 768
WIRE 448 1024 448 912
FLAG -176 96 0
FLAG -288 -96 0
FLAG 768 416 0
FLAG -160 -16 v-
FLAG 96 192 v-
FLAG -160 -208 v+
FLAG 96 128 v+
FLAG -128 304 0
FLAG 768 304 vout
FLAG 592 192 v+
FLAG 368 64 v+
FLAG 368 400 0
FLAG 384 768 v-
FLAG 384 704 v+
FLAG 448 1024 0
FLAG 240 720 Iout
FLAG 1808 608 v-
FLAG 1808 544 v+
FLAG 288 416 0
FLAG 208 928 0
FLAG 1728 720 0
FLAG 128 784 v-
FLAG 128 720 v+
SYMBOL voltage -160 -224 R0
SYMATTR InstName V1
SYMATTR Value 15
SYMBOL voltage -160 -112 R0
SYMATTR InstName V2
SYMATTR Value 15
SYMBOL res 752 320 R0
SYMATTR InstName RL
SYMATTR Value 2
SYMBOL res 144 0 R90
WINDOW 0 0 56 VBottom 2
WINDOW 3 32 56 VTop 2
SYMATTR InstName R2
SYMATTR Value 1k
SYMBOL res -16 48 R90
WINDOW 0 0 56 VBottom 2
WINDOW 3 32 56 VTop 2
SYMATTR InstName R3
SYMATTR Value 1k
SYMBOL voltage -128 208 R0
SYMATTR InstName V3
SYMATTR Value 1
SYMBOL Opamps\\OP27 96 96 R0
WINDOW 3 16 15 Left 2
SYMATTR InstName U2
SYMBOL nmos 544 192 R0
WINDOW 3 64 -5 Left 2
SYMATTR Value BSZ42DN25NS3
SYMATTR InstName M1
SYMBOL Opamps\\OP27 384 672 M0
SYMATTR InstName U1
SYMBOL res 496 672 M90
WINDOW 0 0 56 VBottom 2
WINDOW 3 32 56 VTop 2
SYMATTR InstName R6
SYMATTR Value 1k
SYMBOL res 320 576 M90
WINDOW 0 0 56 VBottom 2
WINDOW 3 32 56 VTop 2
SYMATTR InstName R7
SYMATTR Value {x}
SYMBOL res 496 784 M90
WINDOW 0 0 56 VBottom 2
WINDOW 3 32 56 VTop 2
SYMATTR InstName R8
SYMATTR Value 1k
SYMBOL res 432 928 M180
WINDOW 0 36 76 Left 2
WINDOW 3 36 40 Left 2
SYMATTR InstName R9
SYMATTR Value {x}
SYMBOL pnp 304 272 R0
SYMATTR InstName Q1
SYMATTR Value 2N3906
SYMBOL res 352 96 R0
SYMATTR InstName R4
SYMATTR Value 1k
SYMBOL Opamps\\OP27 1808 512 R0
SYMATTR InstName U3
SYMBOL res 272 112 R0
WINDOW 0 -34 40 Left 2
WINDOW 3 -52 76 Left 2
SYMATTR InstName R1
SYMATTR Value 4.7k
SYMBOL res 1744 544 R90
WINDOW 0 0 56 VBottom 2
WINDOW 3 32 56 VTop 2
SYMATTR InstName R10
SYMATTR Value 1k
SYMBOL res 1888 464 R90
WINDOW 0 0 56 VBottom 2
WINDOW 3 32 56 VTop 2
SYMATTR InstName R11
SYMATTR Value 1k
SYMBOL voltage 208 832 R0
WINDOW 0 46 60 Left 2
WINDOW 3 46 88 Left 2
WINDOW 123 0 0 Left 2
WINDOW 39 0 0 Left 2
SYMATTR InstName V5
SYMATTR Value 500m
SYMBOL diode 208 256 R180
WINDOW 0 24 64 Left 2
WINDOW 3 24 0 Left 2
SYMATTR InstName D1
SYMATTR Value 1N4148
SYMBOL res 288 304 R90
WINDOW 0 0 45 VBottom 2
WINDOW 3 27 51 VTop 2
SYMATTR InstName R12
SYMATTR Value 4.7k
SYMBOL diode 304 416 R180
WINDOW 0 -34 44 Left 2
WINDOW 3 -87 -6 Left 2
SYMATTR InstName D2
SYMATTR Value 1N4148
SYMBOL diode 176 352 R0
WINDOW 0 -69 15 Left 2
WINDOW 3 -109 42 Left 2
SYMATTR InstName D3
SYMATTR Value 1N4148
SYMBOL voltage 1728 624 R0
SYMATTR InstName V4
SYMATTR Value -1
SYMBOL Opamps\\OP27 128 688 M0
WINDOW 3 16 15 Left 2
SYMATTR InstName U4
SYMBOL res 720 304 R90
WINDOW 0 0 56 VBottom 2
WINDOW 3 32 56 VTop 2
SYMATTR InstName R5
SYMATTR Value 10m
TEXT -288 424 Left 2 !.tran 0 100u 0 0.01u
TEXT 512 -328 Left 2 ;Configurazione avanzata usando un bjt(npn) per comandare un mosfet di tipo n
TEXT 520 -304 Left 2 ;Il circuito può essere visto come un amplificatore non invertente (G=rf/ri+1)
TEXT 504 -240 Left 2 ;il valore di vout sarò quindi il doppio della tensone che applichiamo attraverso il generaore V3, cche sarà poi sostituito da un DAC
TEXT 512 -192 Left 2 ;al variare della corrente assorbita dal carico la tensione non cambia, quindi il circuito stà regolando in maniera opportuna
TEXT 864 632 Left 2 !.step param x 1k 100k 10k
