Version 4
SHEET 1 2932 1948
WIRE -176 -96 -272 -96
WIRE -96 -96 -176 -96
WIRE -32 -96 -96 -96
WIRE 256 -96 -32 -96
WIRE -272 -80 -272 -96
WIRE -176 -80 -176 -96
WIRE -32 -80 -32 -96
WIRE 256 -48 256 -96
WIRE 112 0 -32 0
WIRE 640 0 400 0
WIRE -272 16 -272 0
WIRE -176 16 -176 -16
WIRE -32 16 -32 0
WIRE 640 16 640 0
WIRE 112 96 96 96
WIRE 592 96 400 96
WIRE -32 112 -32 96
WIRE 640 112 640 80
WIRE 592 144 592 96
WIRE 976 144 592 144
WIRE 1232 144 1056 144
WIRE 1392 144 1232 144
WIRE 1936 144 1472 144
WIRE -432 192 -496 192
WIRE 432 192 400 192
WIRE 432 208 432 192
WIRE -496 256 -496 192
WIRE 48 288 16 288
WIRE 432 288 432 272
WIRE 432 288 400 288
WIRE 480 288 432 288
WIRE 592 288 592 144
WIRE 592 288 560 288
WIRE 672 288 592 288
WIRE 784 288 672 288
WIRE 1632 288 784 288
WIRE 1728 288 1632 288
WIRE 1856 288 1824 288
WIRE 1936 288 1936 144
WIRE 1936 288 1856 288
WIRE 2016 288 1936 288
WIRE 672 304 672 288
WIRE 784 304 784 288
WIRE -592 352 -592 336
WIRE -496 352 -496 336
WIRE -496 352 -592 352
WIRE -400 352 -496 352
WIRE -496 384 -496 352
WIRE 16 384 0 384
WIRE 112 384 96 384
WIRE 432 384 400 384
WIRE 672 400 672 368
WIRE 784 400 784 368
WIRE 1584 416 1584 400
WIRE 1648 416 1584 416
WIRE 1808 416 1808 336
WIRE 1808 416 1728 416
WIRE 192 448 192 432
WIRE 320 448 320 432
WIRE 1280 448 1248 448
WIRE 1392 448 1344 448
WIRE 1520 448 1472 448
WIRE 592 464 592 288
WIRE 1584 464 1584 416
WIRE 2016 496 2016 288
WIRE -496 528 -496 464
WIRE -432 528 -496 528
WIRE 1808 528 1808 416
WIRE 1808 528 1728 528
WIRE 1168 560 1136 560
WIRE 1248 560 1248 448
WIRE 1360 560 1248 560
WIRE 592 576 592 544
WIRE 1520 576 1520 448
WIRE 1520 576 1424 576
WIRE 1584 576 1584 544
WIRE 1584 576 1520 576
WIRE 1664 576 1584 576
WIRE 1360 592 1296 592
WIRE -96 608 -96 -96
WIRE 2016 608 2016 576
WIRE 752 624 656 624
WIRE 1248 624 1248 560
WIRE 752 672 752 624
WIRE -96 704 -96 672
WIRE 432 704 432 384
WIRE 592 704 592 672
WIRE 592 704 432 704
WIRE 592 720 592 704
WIRE 1072 736 1072 704
WIRE 1248 736 1248 688
WIRE 1248 736 1072 736
WIRE 1296 736 1296 592
WIRE 1296 736 1248 736
WIRE 1072 784 1072 736
WIRE 752 816 752 752
WIRE 592 832 592 800
FLAG 192 448 0
FLAG 320 448 0
FLAG 0 384 0
FLAG 16 288 0
FLAG -272 16 0
FLAG 640 112 0
FLAG 784 400 0
FLAG -272 -96 IN
FLAG 96 96 0
FLAG -32 112 0
FLAG -176 16 0
FLAG 672 400 0
FLAG -96 704 0
FLAG -432 192 v+
FLAG -432 528 v-
FLAG 1392 608 v-
FLAG 1392 544 v+
FLAG 1072 864 0
FLAG -592 256 5v
FLAG 1072 624 5v
FLAG 1728 624 v-
FLAG -400 352 vgnd
FLAG 1856 288 vgnd
FLAG 1136 560 vgnd
FLAG 1584 400 v+
FLAG 2016 608 0
FLAG 432 384 FB
FLAG 1632 288 VSW
FLAG 752 816 vgnd
FLAG 592 832 0
FLAG 1232 144 VPART
SYMBOL res 112 368 R90
WINDOW 0 0 56 VBottom 2
WINDOW 3 32 56 VTop 2
SYMATTR InstName R1
SYMATTR Value 60.4K
SYMBOL voltage -272 -96 R0
WINDOW 123 0 0 Left 2
WINDOW 39 0 0 Left 2
SYMATTR InstName V1
SYMATTR Value 50
SYMBOL cap 624 16 R0
SYMATTR InstName C2
SYMATTR Value 1µ
SYMBOL ind 464 304 R270
WINDOW 0 32 56 VTop 2
WINDOW 3 5 56 VBottom 2
SYMATTR InstName L1
SYMATTR Value 5.5µ
SYMATTR SpiceLine Ipk=9.5 Rser=0.0103 Rpar=2100 Cpar=3.89p mfg="Wurth Elektronik" pn="744325550 WE-HCI 1050"
SYMBOL cap 416 208 R0
SYMATTR InstName C3
SYMATTR Value .1µ
SYMBOL cap 768 304 R0
WINDOW 3 38 34 Left 2
WINDOW 123 24 60 Left 2
SYMATTR Value 10µ
SYMATTR Value2 x5
SYMATTR InstName C4
SYMATTR SpiceLine Rser=0.005
SYMBOL LT8612 256 192 R0
SYMATTR InstName U1
SYMBOL res -48 0 R0
SYMATTR InstName R2
SYMATTR Value 54.6K
SYMBOL res -48 -96 R0
SYMATTR InstName R3
SYMATTR Value 499K
SYMBOL cap -192 -80 R0
SYMATTR InstName C6
SYMATTR Value 10µ
SYMBOL cap 656 304 R0
SYMATTR InstName C7
SYMATTR Value 100µ
SYMATTR SpiceLine Rser=0.005
SYMBOL res 576 448 R0
SYMATTR InstName R13
SYMATTR Value 1k
SYMBOL res 576 704 R0
SYMATTR InstName R14
SYMATTR Value 10k
SYMBOL pnp 656 672 R180
WINDOW 0 4 68 Right 2
WINDOW 3 9 28 Right 2
SYMATTR InstName Q1
SYMATTR Value 2N3906
SYMBOL res 736 656 R0
SYMATTR InstName R15
SYMATTR Value 22k
SYMBOL cap -112 608 R0
SYMATTR InstName C13
SYMATTR Value 1µ
SYMBOL cap 112 272 R90
WINDOW 0 0 32 VBottom 2
WINDOW 3 32 32 VTop 2
SYMATTR InstName C1
SYMATTR Value 0.001µ
SYMBOL voltage -496 240 R0
SYMATTR InstName V2
SYMATTR Value 12
SYMBOL voltage -496 368 R0
SYMATTR InstName V3
SYMATTR Value 12
SYMBOL Opamps\\OP27 1392 512 R0
SYMATTR InstName U2
SYMBOL res 1488 432 R90
WINDOW 0 0 56 VBottom 2
WINDOW 3 32 56 VTop 2
SYMATTR InstName R4
SYMATTR Value 1.5m
SYMBOL cap 1344 432 R90
WINDOW 0 0 32 VBottom 2
WINDOW 3 32 32 VTop 2
SYMATTR InstName C8
SYMATTR Value 2200pf
SYMBOL res 1264 544 R90
WINDOW 0 0 56 VBottom 2
WINDOW 3 32 56 VTop 2
SYMATTR InstName R5
SYMATTR Value 8k
SYMBOL res 1088 720 R180
WINDOW 0 36 76 Left 2
WINDOW 3 36 40 Left 2
SYMATTR InstName R7
SYMATTR Value 10k
SYMBOL res 1088 880 R180
WINDOW 0 36 76 Left 2
WINDOW 3 58 62 VLeft 2
SYMATTR InstName R8
SYMATTR Value 5k
SYMBOL voltage -592 240 R0
SYMATTR InstName V4
SYMATTR Value 5
SYMBOL pnp 1664 624 M180
WINDOW 0 4 68 Right 2
WINDOW 3 9 28 Right 2
SYMATTR InstName Q2
SYMATTR Value 2N3906
SYMBOL nmos 1728 336 R270
SYMATTR InstName M1
SYMATTR Value BSP89
SYMBOL res 1568 448 R0
SYMATTR InstName R6
SYMATTR Value 5k
SYMBOL res 1744 400 R90
WINDOW 0 0 56 VBottom 2
WINDOW 3 32 56 VTop 2
SYMATTR InstName R9
SYMATTR Value 1.2k
SYMBOL res 2000 480 R0
SYMATTR InstName R10
SYMATTR Value 50k
SYMBOL res 1072 128 R90
WINDOW 0 0 56 VBottom 2
WINDOW 3 32 56 VTop 2
SYMATTR InstName R11
SYMATTR Value 10K
SYMBOL res 1488 128 R90
WINDOW 0 0 56 VBottom 2
WINDOW 3 32 56 VTop 2
SYMATTR InstName R16
SYMATTR Value 10K
SYMBOL diode 1232 624 R0
SYMATTR InstName D1
SYMATTR Value 1N4148
TEXT 768 -176 Bottom 2 ;LT3081 - 1.5A Single Resistor Rugged Linear Regulator with Monitors\nLT8612 - 42V, 6A Synchronous Step-Down Regulator with 3µA Quiescent Current\nLTC3632 - High Efficiency, High Voltage 20mA Synchronous Step-Down Converter\nLT3092 - 200mA 2-Terminal Programmable Current Source\n24V 3A Constant Voltage, Constant Current Bench Supply\nInput: 10V to 40V     Output: 0V to 25V @ 0 to 3.1A
TEXT 232 1048 Left 2 ;Note:\n  Details description of this circuit is available in July 2014 edition of LT Journal of Analog Inovation.\n  A smaller RUN/SS capacitors on the LT8612 is being used to reduce simulation time. The typical value should be 0.1µF.\n  If the simulation model is not found please update with the "Sync Release" command from the "Tools" menu.\n  It remains the customer's responsibility to verify proper and reliable operation in the actual application.\n  Component substitution and printed circuit board layout may significantly affect circuit performance or reliability.\n  Contact your local sales representative for assistance. This circuit is distributed to customers only for use with LTC parts.\n  Copyright © 2015 Linear Technology Inc. All rights reserved.
TEXT 48 848 Left 2 !.tran 4m uic
