Version 4
SHEET 1 2932 1948
WIRE 704 288 608 288
WIRE 1632 288 704 288
WIRE 1728 288 1632 288
WIRE 1856 288 1824 288
WIRE 1936 288 1856 288
WIRE 2016 288 1936 288
WIRE 608 304 608 288
WIRE 704 304 704 288
WIRE 608 400 608 384
WIRE 704 400 704 368
WIRE 1584 416 1584 400
WIRE 1648 416 1584 416
WIRE 1808 416 1808 336
WIRE 1808 416 1728 416
WIRE 1280 448 1248 448
WIRE 1392 448 1344 448
WIRE 1520 448 1472 448
WIRE 1584 464 1584 416
WIRE 2016 496 2016 288
WIRE 704 528 640 528
WIRE 1808 528 1808 416
WIRE 1808 528 1728 528
WIRE 1168 560 1136 560
WIRE 1248 560 1248 448
WIRE 1360 560 1248 560
WIRE 1520 576 1520 448
WIRE 1520 576 1424 576
WIRE 1584 576 1584 544
WIRE 1584 576 1520 576
WIRE 1664 576 1584 576
WIRE 640 592 640 528
WIRE 1360 592 1296 592
WIRE 2016 608 2016 576
WIRE 1248 624 1248 560
WIRE 1392 672 1392 608
WIRE 544 688 544 672
WIRE 640 688 640 672
WIRE 640 688 544 688
WIRE 736 688 640 688
WIRE 640 720 640 688
WIRE 1072 736 1072 704
WIRE 1248 736 1248 688
WIRE 1248 736 1072 736
WIRE 1296 736 1296 592
WIRE 1296 736 1248 736
WIRE 1072 784 1072 736
WIRE 640 864 640 800
WIRE 704 864 640 864
FLAG 608 400 0
FLAG 608 288 IN
FLAG 704 400 0
FLAG 704 528 v+
FLAG 704 864 v-
FLAG 1392 544 v+
FLAG 1072 864 0
FLAG 544 592 5v
FLAG 1072 624 5v
FLAG 1392 672 v-
FLAG 736 688 vgnd
FLAG 1856 288 vgnd
FLAG 1136 560 vgnd
FLAG 1584 400 v+
FLAG 2016 608 0
FLAG 1632 288 VSW
FLAG 1728 624 vgnd
FLAG 1936 352 0
SYMBOL voltage 608 288 R0
WINDOW 123 0 0 Left 2
WINDOW 39 0 0 Left 2
SYMATTR InstName V1
SYMATTR Value 30
SYMBOL cap 688 304 R0
SYMATTR InstName C6
SYMATTR Value 10µ
SYMBOL voltage 640 576 R0
SYMATTR InstName V2
SYMATTR Value 15
SYMBOL res 1488 432 R90
WINDOW 0 0 56 VBottom 2
WINDOW 3 32 56 VTop 2
SYMATTR InstName R4
SYMATTR Value 1.5m
SYMBOL cap 1344 432 R90
WINDOW 0 0 32 VBottom 2
WINDOW 3 32 32 VTop 2
SYMATTR InstName C8
SYMATTR Value 1200pf
SYMBOL res 1264 544 R90
WINDOW 0 0 56 VBottom 2
WINDOW 3 32 56 VTop 2
SYMATTR InstName R5
SYMATTR Value 8k
SYMBOL res 1088 720 R180
WINDOW 0 36 76 Left 2
WINDOW 3 36 40 Left 2
SYMATTR InstName R7
SYMATTR Value 10k
SYMBOL res 1088 880 R180
WINDOW 0 36 76 Left 2
WINDOW 3 58 62 VLeft 2
SYMATTR InstName R8
SYMATTR Value 35k
SYMBOL voltage 544 576 R0
SYMATTR InstName V4
SYMATTR Value 5
SYMBOL pnp 1664 624 M180
WINDOW 0 4 68 Right 2
WINDOW 3 9 28 Right 2
SYMATTR InstName Q2
SYMATTR Value 2N3906
SYMBOL nmos 1728 336 R270
SYMATTR InstName M1
SYMATTR Value IRF530
SYMBOL res 1568 448 R0
SYMATTR InstName R6
SYMATTR Value 5k
SYMBOL res 1744 400 R90
WINDOW 0 0 56 VBottom 2
WINDOW 3 32 56 VTop 2
SYMATTR InstName R9
SYMATTR Value 1.2k
SYMBOL diode 1232 624 R0
SYMATTR InstName D1
SYMATTR Value 1N4148
SYMBOL load2 2016 496 R0
WINDOW 0 25 84 Left 2
WINDOW 3 17 -16 Left 2
WINDOW 123 0 0 Left 2
WINDOW 39 0 0 Left 2
SYMATTR InstName I1
SYMATTR Value PULSE(1 2 0 0.1m 0.1m 0.1m 1)
SYMBOL voltage 640 704 R0
SYMATTR InstName V3
SYMATTR Value 15
SYMBOL Opamps\\OP27 1392 512 R0
SYMATTR InstName U2
SYMBOL cap 1920 288 R0
SYMATTR InstName C1
SYMATTR Value 100µ
TEXT 686 960 Left 2 !.tran 0 10m 0 0.001m
