Version 4
SHEET 1 2144 680
WIRE -160 -112 -160 -128
WIRE -160 -112 -288 -112
WIRE -288 -96 -288 -112
WIRE -160 -96 -160 -112
WIRE 48 16 16 16
WIRE 736 16 128 16
WIRE -112 64 -176 64
WIRE 16 64 16 16
WIRE 16 64 -32 64
WIRE -176 96 -176 64
WIRE 16 144 16 64
WIRE 64 144 16 144
WIRE 208 160 128 160
WIRE 64 176 -128 176
WIRE -128 224 -128 176
WIRE 368 272 368 112
WIRE 544 272 432 272
WIRE 208 320 208 160
WIRE 304 320 208 320
WIRE 592 320 592 288
WIRE 736 320 736 16
WIRE 736 320 592 320
WIRE 768 320 768 304
WIRE 768 320 736 320
WIRE 768 336 768 320
WIRE 368 400 368 368
WIRE 432 400 432 272
WIRE 432 400 368 400
WIRE 368 416 368 400
WIRE 368 512 368 496
FLAG -176 96 0
FLAG -288 -96 0
FLAG 768 416 0
FLAG -160 -16 v-
FLAG 96 192 v-
FLAG -160 -208 v+
FLAG 96 128 v+
FLAG -128 304 0
FLAG 768 304 vout
FLAG 592 192 v+
FLAG 368 112 v+
FLAG 368 512 0
SYMBOL voltage -160 -224 R0
SYMATTR InstName V1
SYMATTR Value 15
SYMBOL voltage -160 -112 R0
SYMATTR InstName V2
SYMATTR Value 15
SYMBOL res 752 320 R0
SYMATTR InstName R1
SYMATTR Value 40
SYMBOL res 144 0 R90
WINDOW 0 0 56 VBottom 2
WINDOW 3 32 56 VTop 2
SYMATTR InstName R2
SYMATTR Value 1k
SYMBOL res -16 48 R90
WINDOW 0 0 56 VBottom 2
WINDOW 3 32 56 VTop 2
SYMATTR InstName R3
SYMATTR Value 1k
SYMBOL voltage -128 208 R0
SYMATTR InstName V3
SYMATTR Value 1
SYMBOL Opamps\\OP27 96 96 R0
SYMATTR InstName U2
SYMBOL nmos 544 192 R0
WINDOW 3 64 -5 Left 2
SYMATTR InstName M1
SYMATTR Value BSZ42DN25NS3
SYMBOL npn 304 272 R0
SYMATTR InstName Q1
SYMATTR Value 2N3055
SYMBOL res 352 400 R0
SYMATTR InstName R4
SYMATTR Value 1k
TEXT -288 424 Left 2 !.tran 0 1u 0 0.01u
TEXT 512 -328 Left 2 ;Configurazione avanzata usando un bjt(npn) per comandare un mosfet di tipo n
TEXT 520 -304 Left 2 ;Il circuito può essere visto come un amplificatore non invertente (G=rf/ri+1)
TEXT 504 -240 Left 2 ;il valore di vout sarò quindi il doppio della tensone che applichiamo attraverso il generaore V3, cche sarà poi sostituito da un DAC
TEXT 512 -192 Left 2 ;al variare della corrente assorbita dal carico la tensione non cambia, quindi il circuito stà regolando in maniera opportuna
