* Z:\home\carlo\progetti\alimentatore\alimentatore_LT\simulazioni_spice\transistor_mosfet_E361.asc
V1 v+ 0 15
V2 0 v- 15
RL 0 v0 100
R2 0 N001 1k
R3 N001 v0 1k
V3 N003 v0 10
M1 vcc N004 N007 N007 BSZ42DN25NS3
Q1 N004 N006 v- 0 2N2905A
R4 vcc N004 1k
R1 vcc N005 4.7k
D1 N005 N002 1N4148
R12 N006 N005 4.7k
D2 v0 N006 1N4148
D3 N005 N011 1N4148
R5 0 N007 .1
R6 0 N008 1K
R7 N008 N009 49K
V4 vcc v0 25
V5 N010 v0 10
C2 v0 0 100n
XU4 N007 N008 v+ v- N009 LT1001
XU1 N010 N009 v+ v- N011 LT1001
XU3 N003 N001 v+ v- N002 LT1001
C1 0 N001 10n
C3 N009 N011 1000p
C4 N002 N001 1000p
.model D D
.lib C:\users\carlo\My Documents\LTspiceXVII\lib\cmp\standard.dio
.model NPN NPN
.model PNP PNP
.lib C:\users\carlo\My Documents\LTspiceXVII\lib\cmp\standard.bjt
.model NMOS NMOS
.model PMOS PMOS
.lib C:\users\carlo\My Documents\LTspiceXVII\lib\cmp\standard.mos
.tran 0 100u 0 0.01u
* Configurazione avanzata usando un bjt(npn) per comandare un mosfet di tipo n
* Il circuito può essere visto come un amplificatore non invertente (G=rf/ri+1)
* il valore di vout sarò quindi il doppio della tensone che applichiamo attraverso il generaore V3, cche sarà poi sostituito da un DAC
* al variare della corrente assorbita dal carico la tensione non cambia, quindi il circuito stà regolando in maniera opportuna
.lib LTC.lib
.backanno
.end
