Version 4
SHEET 1 880 680
WIRE -352 -288 -560 -288
WIRE -560 -256 -560 -288
WIRE -352 -256 -352 -288
WIRE -352 -80 -352 -176
WIRE -960 -48 -960 -64
WIRE -960 -48 -1072 -48
WIRE -960 -32 -960 -48
WIRE -160 -32 -208 -32
WIRE -208 -16 -208 -32
WIRE -1072 0 -1072 -48
WIRE -160 32 -160 -32
WIRE -96 32 -160 32
WIRE 112 48 -32 48
WIRE -352 64 -352 0
WIRE -96 64 -352 64
WIRE -352 128 -352 64
WIRE -352 256 -352 208
WIRE 112 256 112 48
WIRE 112 256 -352 256
WIRE 352 256 112 256
WIRE 480 256 352 256
WIRE 352 272 352 256
WIRE 352 384 352 352
WIRE 352 480 352 464
WIRE 496 480 352 480
WIRE 352 496 352 480
WIRE 496 496 496 480
FLAG 496 576 0
FLAG -560 -176 0
FLAG -64 80 V+
FLAG -960 -144 V+
FLAG -960 48 V-
FLAG -64 16 V-
FLAG -1072 0 0
FLAG 480 256 CREF
FLAG 352 576 0
FLAG -208 -16 0
SYMBOL res -368 112 R0
SYMATTR InstName R19
SYMATTR Value 5K
SYMBOL res -368 -96 R0
SYMATTR InstName R28
SYMATTR Value 6.81k
SYMBOL res -368 -272 R0
SYMATTR InstName R31
SYMATTR Value 10k
SYMBOL res 368 592 R180
WINDOW 0 36 76 Left 2
WINDOW 3 36 40 Left 2
SYMATTR InstName R20A
SYMATTR Value 50k
SYMBOL res 368 368 R180
WINDOW 0 36 76 Left 2
WINDOW 3 36 40 Left 2
SYMATTR InstName R40
SYMATTR Value 267k
SYMBOL voltage -960 -160 R0
WINDOW 123 0 0 Left 2
WINDOW 39 0 0 Left 2
SYMATTR InstName V1
SYMATTR Value 15
SYMBOL voltage -960 -48 R0
SYMATTR InstName V2
SYMATTR Value 15
SYMBOL voltage 496 480 R0
WINDOW 123 0 0 Left 2
WINDOW 39 0 0 Left 2
SYMATTR InstName V3
SYMATTR Value 50v
SYMBOL res 368 480 R180
WINDOW 0 36 76 Left 2
WINDOW 3 36 40 Left 2
SYMATTR InstName R20B
SYMATTR Value 1
SYMBOL voltage -560 -272 R0
WINDOW 123 0 0 Left 2
WINDOW 39 0 0 Left 2
SYMATTR InstName V4
SYMATTR Value 0
SYMBOL Opamps\\OP37 -64 112 M180
SYMATTR InstName U2
TEXT 30 312 Left 2 !.tran 0 1u 0 0.1u
TEXT 496 296 Left 2 ;-2.9744198V
